LTspice 24.0.9 for Windows
Circuit: * C:\ITBA\20241Q\ASSD\TP-1\Circuito_TP1.asc
Start Time: Sat Mar 16 20:36:26 2024
Warning: Multiple definitions of model "mur460" Type: Diode
Warning: Multiple definitions of model "1n4007" Type: Diode
Warning: Multiple definitions of model "1n4148" Type: Diode
Warning: Multiple definitions of model "mur460" Type: Diode
Warning: Multiple definitions of model "1n4007" Type: Diode
Warning: Multiple definitions of model "1n4148" Type: Diode
Warning: Multiple definitions of model "mur460" Type: Diode
Warning: Multiple definitions of model "1n4007" Type: Diode
Warning: Multiple definitions of model "1n4148" Type: Diode
Warning: Multiple definitions of model "mur460" Type: Diode
Warning: Multiple definitions of model "1n4007" Type: Diode
Warning: Multiple definitions of model "1n4148" Type: Diode
Ignoring MOS2 model parameter UTRA
Ignoring MOS2 model parameter UTRA
solver = Normal
Maximum thread count: 20
tnom = 27
temp = 27
method = modified trap
Limiting fall time of source v:u9:1 to 2.71051e-20
WARNING: Less than two connections to node n025.  This node is used by v1.
Early termination of direct N-R iteration.
Direct Newton iteration failed to find .op point.  (Use ".option noopiter" to skip.)
Starting Gmin stepping
Gmin = 10
vernier = 0.5
vernier = 0.25
vernier = 0.125
Gmin = 5.5165
vernier = 0.0625
vernier = 0.03125
vernier = 0.015625
vernier = 0.0078125
Gmin = 5.49501
vernier = 0.00390625
vernier = 0.00195312
vernier = 0.000976562
vernier = 0.000488281
Gmin = 5.49836
Gmin = 0
Gmin stepping failed

Starting source stepping with srcstepmethod=0
Source Step = 3.0303%
Source Step = 9.84848%
Source Step = 17.4242%
Source Step = 18.9512%
Source Step = 18.9808%
Source Step = 19.0104%
Source Step = 19.04%
Source Step = 19.0696%
vernier = 0.00146484
Source Step = 19.1022%
Source Step = 19.1465%
Source Step = 19.1909%
Source Step = 19.2353%
Source Step = 19.2797%
vernier = 0.00219727
Source Step = 19.3263%
Source Step = 19.3929%
Source Step = 19.4595%
Source Step = 19.5261%
Source Step = 19.5927%
Source Step = 19.6592%
vernier = 0.0032959
Source Step = 19.7591%
Source Step = 19.859%
Source Step = 19.9589%
Source Step = 20.0587%
Source Step = 20.1586%
vernier = 0.00494385
Source Step = 20.2835%
Source Step = 20.4333%
Source Step = 20.5831%
Source Step = 20.7329%
Source Step = 20.8827%
vernier = 0.00741577
Source Step = 21.0625%
Source Step = 21.2872%
Source Step = 21.5119%
Source Step = 21.7367%
Source Step = 21.9614%
vernier = 0.0111237
Source Step = 22.2198%
Source Step = 22.5569%
Source Step = 22.894%
Source Step = 23.231%
Source Step = 23.5681%
vernier = 0.0166855
Source Step = 23.9389%
Source Step = 24.4445%
Source Step = 24.9502%
Source Step = 25.4558%
Source Step = 25.9614%
vernier = 0.0250282
Source Step = 26.4923%
Source Step = 27.2507%
Source Step = 28.0092%
Source Step = 28.7676%
Source Step = 29.526%
Source Step = 30.2845%
vernier = 0.0375423
Source Step = 31.4221%
Source Step = 32.5597%
Source Step = 33.6974%
Source Step = 34.835%
Source Step = 35.9727%
vernier = 0.0563135
Source Step = 37.6223%
Source Step = 39.3287%
Source Step = 41.0352%
Source Step = 42.7417%
Source Step = 44.4482%
vernier = 0.0844703
Source Step = 46.8372%
Source Step = 49.3969%
Source Step = 51.9566%
Source Step = 54.5163%
Source Step = 57.076%
vernier = 0.126705
Source Step = 60.5316%
Source Step = 64.3712%
Source Step = 68.2108%
Source Step = 72.0503%
Source Step = 75.8899%
vernier = 0.190058
Source Step = 80.8813%
Source Step = 86.6406%
Source Step = 92.4%
Source Step = 98.1593%
Source Step = 100%
Source stepping succeeded in finding the operating point.

Ignoring empty pin current: Ix(u1:1)
Ignoring empty pin current: Ix(u1:2)
Ignoring empty pin current: Ix(u1:3)
Ignoring empty pin current: Ix(u1:4)
Ignoring empty pin current: Ix(u1:5)
Ignoring empty pin current: Ix(u3:in)
Ignoring empty pin current: Ix(u3:out)
Ignoring empty pin current: Ix(u3:v+)
Ignoring empty pin current: Ix(u3:v-)
Ignoring empty pin current: Ix(u5:in)
Ignoring empty pin current: Ix(u5:out)
Ignoring empty pin current: Ix(u5:v+)
Ignoring empty pin current: Ix(u5:v-)
Ignoring empty pin current: Ix(u7:in)
Ignoring empty pin current: Ix(u7:out)
Ignoring empty pin current: Ix(u7:v+)
Ignoring empty pin current: Ix(u7:v-)
Ignoring empty pin current: Ix(u13:in)
Ignoring empty pin current: Ix(u13:out)
Ignoring empty pin current: Ix(u13:v+)
Ignoring empty pin current: Ix(u13:v-)
Ignoring empty pin current: Ix(u14:in)
Ignoring empty pin current: Ix(u14:out)
Ignoring empty pin current: Ix(u14:v+)
Ignoring empty pin current: Ix(u14:v-)
Ignoring empty pin current: Ix(u15:in)
Ignoring empty pin current: Ix(u15:out)
Ignoring empty pin current: Ix(u15:v+)
Ignoring empty pin current: Ix(u15:v-)
Ignoring empty pin current: Ix(u20:in)
Ignoring empty pin current: Ix(u20:out)
Ignoring empty pin current: Ix(u20:v+)
Ignoring empty pin current: Ix(u20:v-)
Ignoring empty pin current: Ix(u22:in)
Ignoring empty pin current: Ix(u22:out)
Ignoring empty pin current: Ix(u22:v+)
Ignoring empty pin current: Ix(u22:v-)
Ignoring empty pin current: Ix(u1:1)
Ignoring empty pin current: Ix(u1:2)
Ignoring empty pin current: Ix(u1:3)
Ignoring empty pin current: Ix(u1:4)
Ignoring empty pin current: Ix(u1:5)
Ignoring empty pin current: Ix(u3:in)
Ignoring empty pin current: Ix(u3:out)
Ignoring empty pin current: Ix(u3:v+)
Ignoring empty pin current: Ix(u3:v-)
Ignoring empty pin current: Ix(u5:in)
Ignoring empty pin current: Ix(u5:out)
Ignoring empty pin current: Ix(u5:v+)
Ignoring empty pin current: Ix(u5:v-)
Ignoring empty pin current: Ix(u7:in)
Ignoring empty pin current: Ix(u7:out)
Ignoring empty pin current: Ix(u7:v+)
Ignoring empty pin current: Ix(u7:v-)
Ignoring empty pin current: Ix(u13:in)
Ignoring empty pin current: Ix(u13:out)
Ignoring empty pin current: Ix(u13:v+)
Ignoring empty pin current: Ix(u13:v-)
Ignoring empty pin current: Ix(u14:in)
Ignoring empty pin current: Ix(u14:out)
Ignoring empty pin current: Ix(u14:v+)
Ignoring empty pin current: Ix(u14:v-)
Ignoring empty pin current: Ix(u15:in)
Ignoring empty pin current: Ix(u15:out)
Ignoring empty pin current: Ix(u15:v+)
Ignoring empty pin current: Ix(u15:v-)
Ignoring empty pin current: Ix(u20:in)
Ignoring empty pin current: Ix(u20:out)
Ignoring empty pin current: Ix(u20:v+)
Ignoring empty pin current: Ix(u20:v-)
Ignoring empty pin current: Ix(u22:in)
Ignoring empty pin current: Ix(u22:out)
Ignoring empty pin current: Ix(u22:v+)
Ignoring empty pin current: Ix(u22:v-)
Heightened Def Con from 0.000141221 to 0.000141221
Heightened Def Con from 0.000146193 +++++++++to 0.000146193
Heightened Def Con from 0.000146193 ++++++++++to 0.000146193
Heightened Def Con from 0.000146193 ++++++++++to 0.000146193
Heightened Def Con from 0.000146193 +++++++++++to 0.000146193
Heightened Def Con from 0.000146193 +++++++++++to 0.000146193
Heightened Def Con from 0.000146193 +++++++++++to 0.000146193
Heightened Def Con from 0.000146193 +++++++++++to 0.000146193
Heightened Def Con from 0.000146193 ++++++++++++to 0.000146193
Heightened Def Con from 0.000146193 ++++++++++++to 0.000146193
Heightened Def Con from 0.000146193 ++++++++++++to 0.000146193
Heightened Def Con from 0.000146193 ++++++++++++to 0.000146193
Heightened Def Con from 0.000146193 ++++++++++++to 0.000146193
Heightened Def Con from 0.000146193 +++++++++++++to 0.000146193
Heightened Def Con from 0.000146193 +++++++++++++to 0.000146193
Heightened Def Con from 0.000146193 +++++++++++++to 0.000146193
Heightened Def Con from 0.000146193 +++++++++++++to 0.000146193
Heightened Def Con from 0.000146193 +++++++++++++to 0.000146193
Heightened Def Con from 0.000146193 +++++++++++++to 0.000146193
Heightened Def Con from 0.000146193 +++++++++++++to 0.000146193
Heightened Def Con from 0.000146193 +++++++++++++to 0.000146193
Heightened Def Con from 0.000146193 +++++++++++++to 0.000146193
Heightened Def Con from 0.000146193 +++++++++++++to 0.000146193
Heightened Def Con from 0.000146193 +++++++++++++to 0.000146193
Heightened Def Con from 0.000146193 +++++++++++++to 0.000146193
Heightened Def Con from 0.000146193 +++++++++++++to 0.000146193
Heightened Def Con from 0.000146193 +++++++++++++to 0.000146193
Heightened Def Con from 0.000146193 +++++++++++++to 0.000146193
Heightened Def Con from 0.000146193 +++++++++++++to 0.000146193
Heightened Def Con from 0.000146193 +++++++++++++to 0.000146193
Heightened Def Con from 0.000146193 ++++++++++++++to 0.000146193
Heightened Def Con from 0.000146193 ++++++++++++++to 0.000146193
Heightened Def Con from 0.000146193 ++++++++++++++to 0.000146193
Heightened Def Con from 0.000146193 ++++++++++++++to 0.000146193
Heightened Def Con from 0.000146193 ++++++++++++++to 0.000146193
Heightened Def Con from 0.000146193 ++++++++++++++to 0.000146193
Heightened Def Con from 0.000146193 ++++++++++++++to 0.000146193
Heightened Def Con from 0.000146193 ++++++++++++++to 0.000146193
Heightened Def Con from 0.000146193 ++++++++++++++to 0.000146193
Heightened Def Con from 0.000146193 ++++++++++++++to 0.000146193
Heightened Def Con from 0.000146193 ++++++++++++++to 0.000146193
Heightened Def Con from 0.000146193 ++++++++++++++to 0.000146193
Heightened Def Con from 0.000146193 ++++++++++++++to 0.000146193
Heightened Def Con from 0.000146193 ++++++++++++++to 0.000146193
Heightened Def Con from 0.000146193 ++++++++++++++to 0.000146193
Heightened Def Con from 0.000146193 ++++++++++++++to 0.000146193
Heightened Def Con from 0.000146193 ++++++++++++++to 0.000146193
Heightened Def Con from 0.000146193 ++++++++++++++to 0.000146193
Heightened Def Con from 0.000146193 ++++++++++++++to 0.000146193
Heightened Def Con from 0.000146193 ++++++++++++++to 0.000146193
Heightened Def Con from 0.000146193 ++++++++++++++to 0.000146193
Heightened Def Con from 0.000146193 ++++++++++++++to 0.000146193
Heightened Def Con from 0.000146193 ++++++++++++++++to 0.000146193
Heightened Def Con from 0.000146193 to 0.000146193
Heightened Def Con from 0.000146193 to 0.000146193
Heightened Def Con from 0.000280474 to 0.000280474
Heightened Def Con from 0.000295394 ++to 0.000295394
Heightened Def Con from 0.000295394 +to 0.000295394
Heightened Def Con from 0.000295394 +++++to 0.000295394
Heightened Def Con from 0.000295394 to 0.000295394
Heightened Def Con from 0.000357306 to 0.000357306
Total elapsed time: 248.233 seconds.

