LTspice 24.0.9 for Windows
Circuit: * C:\20241Q\TP-1_ASSD_Muestro_G4\Circuito_TP1.asc
Start Time: Thu Mar 14 16:13:12 2024
solver = Normal
Maximum thread count: 8
tnom = 27
temp = 27
method = modified trap
Limiting fall time of source v:u9:1 to 2.71051e-20
WARNING: Less than two connections to node n025.  This node is used by v:u9:1.
Early termination of direct N-R iteration.
Direct Newton iteration failed to find .op point.  (Use ".option noopiter" to skip.)
Starting Gmin stepping
Gmin = 10
vernier = 0.5
vernier = 0.25
vernier = 0.125
Gmin = 5.5165
vernier = 0.0625
vernier = 0.03125
vernier = 0.015625
vernier = 0.0078125
Gmin = 5.49501
vernier = 0.00390625
vernier = 0.00195312
vernier = 0.000976562
vernier = 0.000488281
Gmin = 0
Gmin = 0
Gmin stepping failed

Starting source stepping with srcstepmethod=0
Source Step = 3.0303%
Source Step = 9.84848%
Source Step = 17.4242%
Source Step = 18.9512%
Source Step = 18.9808%
Source Step = 19.0104%
Source Step = 19.04%
Source Step = 19.0696%
vernier = 0.00146484
Source Step = 19.1007%
Source Step = 19.1451%
Source Step = 19.1895%
Source Step = 19.2338%
Source Step = 19.2782%
Source Step = 19.3226%
vernier = 0.00219727
Source Step = 19.3892%
Source Step = 19.4558%
Source Step = 19.5224%
Source Step = 19.589%
Source Step = 19.6555%
vernier = 0.0032959
Source Step = 19.7521%
Source Step = 19.852%
Source Step = 19.9518%
Source Step = 20.0517%
Source Step = 20.1516%
vernier = 0.00494385
Source Step = 20.2914%
Source Step = 20.4412%
Source Step = 20.591%
Source Step = 20.7409%
Source Step = 20.8907%
vernier = 0.00741577
Source Step = 21.0929%
Source Step = 21.3176%
Source Step = 21.5424%
Source Step = 21.7671%
Source Step = 21.9918%
vernier = 0.0111237
Source Step = 22.2839%
Source Step = 22.621%
Source Step = 22.9581%
Source Step = 23.2952%
Source Step = 23.6323%
vernier = 0.0166855
Source Step = 24.0536%
Source Step = 24.5592%
Source Step = 25.0648%
Source Step = 25.5705%
Source Step = 26.0761%
vernier = 0.0250282
Source Step = 26.6828%
Source Step = 27.4413%
Source Step = 28.1997%
Source Step = 28.9581%
Source Step = 29.7166%
vernier = 0.0375423
Source Step = 30.5888%
Source Step = 31.7264%
Source Step = 32.8641%
Source Step = 34.0017%
Source Step = 35.1393%
vernier = 0.0563135
Source Step = 36.3908%
Source Step = 38.0972%
Source Step = 39.8037%
Source Step = 41.5102%
Source Step = 43.2166%
vernier = 0.0844703
Source Step = 45.0084%
Source Step = 47.5681%
Source Step = 50.1278%
Source Step = 52.6875%
Source Step = 55.2473%
Source Step = 57.807%
vernier = 0.126705
Source Step = 61.6465%
Source Step = 65.4861%
Source Step = 69.3256%
Source Step = 73.1652%
Source Step = 77.0047%
vernier = 0.190058
Source Step = 82.5721%
Source Step = 88.3314%
Source Step = 90.2392%
Source Step = 90.5992%
Source Step = 90.9591%
Source Step = 91.3191%
Source Step = 91.6791%
vernier = 0.0178179
Source Step = 92.111%
Source Step = 92.6509%
Source Step = 93.1909%
Source Step = 93.7308%
Source Step = 94.2708%
vernier = 0.0267269
Source Step = 94.8917%
Source Step = 95.7016%
Source Step = 96.5115%
Source Step = 97.3214%
Source Step = 98.1313%
vernier = 0.0400904
Source Step = 99.0222%
Source stepping succeeded in finding the operating point.

Ignoring empty pin current: Ix(u1:1)
Ignoring empty pin current: Ix(u1:2)
Ignoring empty pin current: Ix(u1:3)
Ignoring empty pin current: Ix(u1:4)
Ignoring empty pin current: Ix(u1:5)
Ignoring empty pin current: Ix(u3:in)
Ignoring empty pin current: Ix(u3:out)
Ignoring empty pin current: Ix(u3:v+)
Ignoring empty pin current: Ix(u3:v-)
Ignoring empty pin current: Ix(u5:in)
Ignoring empty pin current: Ix(u5:out)
Ignoring empty pin current: Ix(u5:v+)
Ignoring empty pin current: Ix(u5:v-)
Ignoring empty pin current: Ix(u7:in)
Ignoring empty pin current: Ix(u7:out)
Ignoring empty pin current: Ix(u7:v+)
Ignoring empty pin current: Ix(u7:v-)
Ignoring empty pin current: Ix(u13:in)
Ignoring empty pin current: Ix(u13:out)
Ignoring empty pin current: Ix(u13:v+)
Ignoring empty pin current: Ix(u13:v-)
Ignoring empty pin current: Ix(u14:in)
Ignoring empty pin current: Ix(u14:out)
Ignoring empty pin current: Ix(u14:v+)
Ignoring empty pin current: Ix(u14:v-)
Ignoring empty pin current: Ix(u15:in)
Ignoring empty pin current: Ix(u15:out)
Ignoring empty pin current: Ix(u15:v+)
Ignoring empty pin current: Ix(u15:v-)
Ignoring empty pin current: Ix(u20:in)
Ignoring empty pin current: Ix(u20:out)
Ignoring empty pin current: Ix(u20:v+)
Ignoring empty pin current: Ix(u20:v-)
Ignoring empty pin current: Ix(u22:in)
Ignoring empty pin current: Ix(u22:out)
Ignoring empty pin current: Ix(u22:v+)
Ignoring empty pin current: Ix(u22:v-)
Ignoring empty pin current: Ix(u1:1)
Ignoring empty pin current: Ix(u1:2)
Ignoring empty pin current: Ix(u1:3)
Ignoring empty pin current: Ix(u1:4)
Ignoring empty pin current: Ix(u1:5)
Ignoring empty pin current: Ix(u3:in)
Ignoring empty pin current: Ix(u3:out)
Ignoring empty pin current: Ix(u3:v+)
Ignoring empty pin current: Ix(u3:v-)
Ignoring empty pin current: Ix(u5:in)
Ignoring empty pin current: Ix(u5:out)
Ignoring empty pin current: Ix(u5:v+)
Ignoring empty pin current: Ix(u5:v-)
Ignoring empty pin current: Ix(u7:in)
Ignoring empty pin current: Ix(u7:out)
Ignoring empty pin current: Ix(u7:v+)
Ignoring empty pin current: Ix(u7:v-)
Ignoring empty pin current: Ix(u13:in)
Ignoring empty pin current: Ix(u13:out)
Ignoring empty pin current: Ix(u13:v+)
Ignoring empty pin current: Ix(u13:v-)
Ignoring empty pin current: Ix(u14:in)
Ignoring empty pin current: Ix(u14:out)
Ignoring empty pin current: Ix(u14:v+)
Ignoring empty pin current: Ix(u14:v-)
Ignoring empty pin current: Ix(u15:in)
Ignoring empty pin current: Ix(u15:out)
Ignoring empty pin current: Ix(u15:v+)
Ignoring empty pin current: Ix(u15:v-)
Ignoring empty pin current: Ix(u20:in)
Ignoring empty pin current: Ix(u20:out)
Ignoring empty pin current: Ix(u20:v+)
Ignoring empty pin current: Ix(u20:v-)
Ignoring empty pin current: Ix(u22:in)
Ignoring empty pin current: Ix(u22:out)
Ignoring empty pin current: Ix(u22:v+)
Ignoring empty pin current: Ix(u22:v-)
Heightened Def Con from 7.26786e-05 to 7.26813e-05
Heightened Def Con from 7.54344e-05 to 7.54349e-05
Heightened Def Con from 8.04089e-05 to 8.04094e-05
Heightened Def Con from 8.26241e-05 to 8.26271e-05
Heightened Def Con from 8.75998e-05 to 8.76028e-05
Heightened Def Con from 9.2572e-05 to 9.2575e-05
Heightened Def Con from 0.000112468 to 0.000112471
Heightened Def Con from 0.000115226 to 0.000115227
Heightened Def Con from 0.000122413 to 0.000122416
Heightened Def Con from 0.000123888 to 0.000123891
Heightened Def Con from 0.000123892 to 0.000123895
Heightened Def Con from 0.000131566 to 0.000131566
Total elapsed time: 255.476 seconds.

