LTspice 24.0.9 for Windows
Circuit: * C:\20241Q\TP-1_ASSD_Muestro_G4\cálculo_filtro\Filtro_norma_monte.asc
Start Time: Wed Mar 20 15:14:15 2024
solver = Normal
Maximum thread count: 8



Early termination of direct N-R iteration.
Direct Newton iteration failed to find .op point.  (Use ".option noopiter" to skip.)
Starting Gmin stepping
Gmin = 10
vernier = 0.5
vernier = 0.25
vernier = 0.125
Gmin = 5.5165
vernier = 0.0625
vernier = 0.03125
vernier = 0.015625
vernier = 0.0078125
Gmin = 5.49501
vernier = 0.00390625
vernier = 0.00195312
vernier = 0.000976562
vernier = 0.000488281
Gmin = 5.50104
Gmin = 0
Gmin stepping failed

Starting source stepping with srcstepmethod=0
Source Step = 3.0303%
Source Step = 33.3333%
Source Step = 63.6364%
Source Step = 93.9394%
Source stepping succeeded in finding the operating point.

Ignoring empty pin current: Ix(u1:1)
Ignoring empty pin current: Ix(u1:2)
Ignoring empty pin current: Ix(u1:3)
Ignoring empty pin current: Ix(u1:4)
Ignoring empty pin current: Ix(u1:5)
Ignoring empty pin current: Ix(u3:in)
Ignoring empty pin current: Ix(u3:out)
Ignoring empty pin current: Ix(u3:v+)
Ignoring empty pin current: Ix(u3:v-)
Ignoring empty pin current: Ix(u5:in)
Ignoring empty pin current: Ix(u5:out)
Ignoring empty pin current: Ix(u5:v+)
Ignoring empty pin current: Ix(u5:v-)
Ignoring empty pin current: Ix(u7:in)
Ignoring empty pin current: Ix(u7:out)
Ignoring empty pin current: Ix(u7:v+)
Ignoring empty pin current: Ix(u7:v-)
Ignoring empty pin current: Ix(u1:1)
Ignoring empty pin current: Ix(u1:2)
Ignoring empty pin current: Ix(u1:3)
Ignoring empty pin current: Ix(u1:4)
Ignoring empty pin current: Ix(u1:5)
Ignoring empty pin current: Ix(u3:in)
Ignoring empty pin current: Ix(u3:out)
Ignoring empty pin current: Ix(u3:v+)
Ignoring empty pin current: Ix(u3:v-)
Ignoring empty pin current: Ix(u5:in)
Ignoring empty pin current: Ix(u5:out)
Ignoring empty pin current: Ix(u5:v+)
Ignoring empty pin current: Ix(u5:v-)
Ignoring empty pin current: Ix(u7:in)
Ignoring empty pin current: Ix(u7:out)
Ignoring empty pin current: Ix(u7:v+)
Ignoring empty pin current: Ix(u7:v-)
.step run=1



.step run=2



.step run=3



.step run=4



.step run=5



.step run=6



.step run=7



.step run=8



.step run=9



.step run=10



.step run=11



.step run=12



.step run=13



.step run=14



.step run=15



.step run=16



.step run=17



.step run=18



.step run=19



.step run=20



.step run=21



.step run=22



.step run=23



.step run=24



.step run=25



.step run=26



.step run=27



.step run=28



.step run=29
tnom = 27
temp = 27
method = modified trap
.step run=30
Total elapsed time: 31.870 seconds.

